<?xml version="1.0" encoding="UTF-8"?>

<!-- generated on 2024-08-26 11:44:05 by Eclipse SUMO netedit Version 1.20.0
<configuration xmlns:xsi="http://www.w3.org/2001/XMLSchema-instance" xsi:noNamespaceSchemaLocation="http://sumo.dlr.de/xsd/neteditConfiguration.xsd">

    <input>
        <sumocfg-file value=".\.\saltlake2_stateXuniversity.sumocfg"/>
        <additional-files value=""/>
        <route-files value=".\.\saltlake2_stateXuniversity.flo.xml"/>
        <sumo-net-file value=".\.\saltlake2_stateXuniversity.net.xml"/>
    </input>

    <output>
        <output-file value=".\.\saltlake2_stateXuniversity.net.xml"/>
    </output>

    <processing>
        <geometry.min-radius.fix.railways value="false"/>
        <geometry.max-grade.fix value="false"/>
        <offset.disable-normalization value="true"/>
        <lefthand value="0"/>
    </processing>

    <junctions>
        <no-turnarounds value="true"/>
        <junctions.corner-detail value="5"/>
        <junctions.limit-turn-speed value="5.50"/>
        <rectangular-lane-cut value="0"/>
    </junctions>

    <pedestrian>
        <walkingareas value="0"/>
    </pedestrian>

    <netedit>
        <ignore.routeelements value="false"/>
    </netedit>

</configuration>
-->

<net version="1.20" junctionCornerDetail="5" limitTurnSpeed="5.50" xmlns:xsi="http://www.w3.org/2001/XMLSchema-instance" xsi:noNamespaceSchemaLocation="http://sumo.dlr.de/xsd/net_file.xsd">

    <location netOffset="0.00,0.00" convBoundary="1000.00,800.00,1300.00,1100.00" origBoundary="0.00,0.00,1500.00,1500.00" projParameter="!"/>

    <edge id=":B3_0" function="internal">
        <lane id=":B3_0_0" index="0" speed="8.10" length="14.57" shape="1188.80,1020.00 1188.45,1014.75 1187.40,1011.00 1185.65,1008.75 1183.20,1008.00"/>
    </edge>
    <edge id=":B3_1" function="internal">
        <lane id=":B3_1_0" index="0" speed="13.89" length="40.13" shape="1188.80,1020.00 1192.00,980.00"/>
        <lane id=":B3_1_1" index="1" speed="13.89" length="40.13" shape="1192.00,1020.00 1195.20,980.00"/>
        <lane id=":B3_1_2" index="2" speed="13.89" length="40.13" shape="1195.20,1020.00 1198.40,980.00"/>
    </edge>
    <edge id=":B3_4" function="internal">
        <lane id=":B3_4_0" index="0" speed="11.84" length="10.16" shape="1198.40,1020.00 1199.55,1010.55 1199.84,1009.98"/>
    </edge>
    <edge id=":B3_20" function="internal">
        <lane id=":B3_20_0" index="0" speed="11.84" length="22.14" shape="1199.84,1009.98 1203.00,1003.80 1208.75,999.75 1216.80,998.40"/>
    </edge>
    <edge id=":B3_5" function="internal">
        <lane id=":B3_5_0" index="0" speed="8.10" length="14.57" shape="1216.80,1014.40 1211.55,1014.75 1207.80,1015.80 1205.55,1017.55 1204.80,1020.00"/>
    </edge>
    <edge id=":B3_6" function="internal">
        <lane id=":B3_6_0" index="0" speed="13.89" length="33.80" shape="1216.80,1011.20 1206.54,1010.70 1199.30,1009.60 1192.40,1008.50 1183.20,1008.00"/>
        <lane id=":B3_6_1" index="1" speed="13.89" length="33.80" shape="1216.80,1008.00 1206.54,1007.50 1199.30,1006.40 1192.40,1005.30 1183.20,1004.80"/>
        <lane id=":B3_6_2" index="2" speed="13.89" length="33.80" shape="1216.80,1004.80 1206.54,1004.30 1199.30,1003.20 1192.40,1002.10 1183.20,1001.60"/>
    </edge>
    <edge id=":B3_9" function="internal">
        <lane id=":B3_9_0" index="0" speed="11.84" length="6.28" shape="1216.80,1001.60 1210.61,1000.56"/>
    </edge>
    <edge id=":B3_21" function="internal">
        <lane id=":B3_21_0" index="0" speed="11.84" length="26.02" shape="1210.61,1000.56 1208.75,1000.25 1203.00,996.20 1199.55,989.45 1198.40,980.00"/>
    </edge>
    <edge id=":B3_10" function="internal">
        <lane id=":B3_10_0" index="0" speed="8.10" length="14.57" shape="1211.20,980.00 1211.55,985.25 1212.60,989.00 1214.35,991.25 1216.80,992.00"/>
    </edge>
    <edge id=":B3_11" function="internal">
        <lane id=":B3_11_0" index="0" speed="13.89" length="40.13" shape="1211.20,980.00 1208.00,1020.00"/>
        <lane id=":B3_11_1" index="1" speed="13.89" length="40.13" shape="1208.00,980.00 1204.80,1020.00"/>
        <lane id=":B3_11_2" index="2" speed="13.89" length="40.13" shape="1204.80,980.00 1201.60,1020.00"/>
    </edge>
    <edge id=":B3_14" function="internal">
        <lane id=":B3_14_0" index="0" speed="11.84" length="10.16" shape="1201.60,980.00 1200.45,989.45 1200.16,990.02"/>
    </edge>
    <edge id=":B3_22" function="internal">
        <lane id=":B3_22_0" index="0" speed="11.84" length="22.14" shape="1200.16,990.02 1197.00,996.20 1191.25,1000.25 1183.20,1001.60"/>
    </edge>
    <edge id=":B3_15" function="internal">
        <lane id=":B3_15_0" index="0" speed="7.33" length="11.73" shape="1183.20,985.60 1187.05,985.25 1189.80,984.20 1191.45,982.45 1192.00,980.00"/>
    </edge>
    <edge id=":B3_16" function="internal">
        <lane id=":B3_16_0" index="0" speed="13.89" length="33.80" shape="1183.20,988.80 1193.46,989.30 1200.70,990.40 1207.60,991.50 1216.80,992.00"/>
        <lane id=":B3_16_1" index="1" speed="13.89" length="33.80" shape="1183.20,992.00 1193.46,992.50 1200.70,993.60 1207.60,994.70 1216.80,995.20"/>
        <lane id=":B3_16_2" index="2" speed="13.89" length="33.80" shape="1183.20,995.20 1193.46,995.70 1200.70,996.80 1207.60,997.90 1216.80,998.40"/>
    </edge>
    <edge id=":B3_19" function="internal">
        <lane id=":B3_19_0" index="0" speed="11.84" length="6.28" shape="1183.20,998.40 1189.39,999.44"/>
    </edge>
    <edge id=":B3_23" function="internal">
        <lane id=":B3_23_0" index="0" speed="11.84" length="26.02" shape="1189.39,999.44 1191.25,999.75 1197.00,1003.80 1200.45,1010.55 1201.60,1020.00"/>
    </edge>

    <edge id="A3B3" from="A3" to="B3" priority="-1">
        <lane id="A3B3_0" index="0" speed="13.89" length="183.20" shape="1000.00,985.60 1183.20,985.60"/>
        <lane id="A3B3_1" index="1" speed="13.89" length="183.20" shape="1000.00,988.80 1183.20,988.80"/>
        <lane id="A3B3_2" index="2" speed="13.89" length="183.20" shape="1000.00,992.00 1183.20,992.00"/>
        <lane id="A3B3_3" index="3" speed="13.89" length="183.20" shape="1000.00,995.20 1183.20,995.20"/>
        <lane id="A3B3_4" index="4" speed="13.89" length="183.20" shape="1000.00,998.40 1183.20,998.40"/>
    </edge>
    <edge id="B2B3" from="B2" to="B3" priority="-1">
        <lane id="B2B3_0" index="0" speed="13.89" length="180.00" shape="1211.20,800.00 1211.20,980.00"/>
        <lane id="B2B3_1" index="1" speed="13.89" length="180.00" shape="1208.00,800.00 1208.00,980.00"/>
        <lane id="B2B3_2" index="2" speed="13.89" length="180.00" shape="1204.80,800.00 1204.80,980.00"/>
        <lane id="B2B3_3" index="3" speed="13.89" length="180.00" shape="1201.60,800.00 1201.60,980.00"/>
    </edge>
    <edge id="B3A3" from="B3" to="A3" priority="-1">
        <lane id="B3A3_0" index="0" speed="13.89" length="183.20" shape="1183.20,1008.00 1000.00,1008.00"/>
        <lane id="B3A3_1" index="1" speed="13.89" length="183.20" shape="1183.20,1004.80 1000.00,1004.80"/>
        <lane id="B3A3_2" index="2" speed="13.89" length="183.20" shape="1183.20,1001.60 1000.00,1001.60"/>
    </edge>
    <edge id="B3B2" from="B3" to="B2" priority="-1">
        <lane id="B3B2_0" index="0" speed="13.89" length="180.00" shape="1192.00,980.00 1192.00,800.00"/>
        <lane id="B3B2_1" index="1" speed="13.89" length="180.00" shape="1195.20,980.00 1195.20,800.00"/>
        <lane id="B3B2_2" index="2" speed="13.89" length="180.00" shape="1198.40,980.00 1198.40,800.00"/>
    </edge>
    <edge id="B3C3" from="B3" to="C3" priority="-1">
        <lane id="B3C3_0" index="0" speed="13.89" length="83.20" shape="1216.80,992.00 1300.00,992.00"/>
        <lane id="B3C3_1" index="1" speed="13.89" length="83.20" shape="1216.80,995.20 1300.00,995.20"/>
        <lane id="B3C3_2" index="2" speed="13.89" length="83.20" shape="1216.80,998.40 1300.00,998.40"/>
    </edge>
    <edge id="B3top1" from="B3" to="top1" priority="-1">
        <lane id="B3top1_0" index="0" speed="13.89" length="80.00" shape="1208.00,1020.00 1208.00,1100.00"/>
        <lane id="B3top1_1" index="1" speed="13.89" length="80.00" shape="1204.80,1020.00 1204.80,1100.00"/>
        <lane id="B3top1_2" index="2" speed="13.89" length="80.00" shape="1201.60,1020.00 1201.60,1100.00"/>
    </edge>
    <edge id="C3B3" from="C3" to="B3" priority="-1">
        <lane id="C3B3_0" index="0" speed="13.89" length="83.20" shape="1300.00,1014.40 1216.80,1014.40"/>
        <lane id="C3B3_1" index="1" speed="13.89" length="83.20" shape="1300.00,1011.20 1216.80,1011.20"/>
        <lane id="C3B3_2" index="2" speed="13.89" length="83.20" shape="1300.00,1008.00 1216.80,1008.00"/>
        <lane id="C3B3_3" index="3" speed="13.89" length="83.20" shape="1300.00,1004.80 1216.80,1004.80"/>
        <lane id="C3B3_4" index="4" speed="13.89" length="83.20" shape="1300.00,1001.60 1216.80,1001.60"/>
    </edge>
    <edge id="E0" from="J0" to="J1" priority="-1">
        <lane id="E0_0" index="0" speed="13.89" length="3.75" shape="1202.82,998.93 1203.14,1002.67"/>
    </edge>
    <edge id="top1B3" from="top1" to="B3" priority="-1">
        <lane id="top1B3_0" index="0" speed="13.89" length="80.00" shape="1188.80,1100.00 1188.80,1020.00"/>
        <lane id="top1B3_1" index="1" speed="13.89" length="80.00" shape="1192.00,1100.00 1192.00,1020.00"/>
        <lane id="top1B3_2" index="2" speed="13.89" length="80.00" shape="1195.20,1100.00 1195.20,1020.00"/>
        <lane id="top1B3_3" index="3" speed="13.89" length="80.00" shape="1198.40,1100.00 1198.40,1020.00"/>
    </edge>

    <tlLogic id="B3" type="static" programID="1" offset="10">
        <phase duration="0.01"  state="srrrrGGGGGsrrrrsrrrr"/>
        <phase duration="0.01"  state="srrrrsrrrrsrrrrGGGGG"/>
        <phase duration="42" state="srrrrGGGGgsrrrrGGGGg"/>
        <phase duration="3"  state="srrrryyyygsrrrryyyyg"/>
        <phase duration="17" state="srrrrrrrrGsrrrrrrrrG"/>
        <phase duration="3"  state="srrrrrrrrysrrrrrrrry"/>
        <phase duration="42" state="srrrrsrrrrGGGGGsrrrr"/>
        <phase duration="0.01"  state="GGGGGsrrrrsrrrrsrrrr"/>
        <phase duration="20" state="GGGGgsrrrrGGGGgsrrrr"/>
        <phase duration="3"  state="yyyygsrrrryyyygsrrrr"/>
        <phase duration="12.01" state="rrrrGsrrrrrrrrGsrrrr"/>
        <phase duration="3"  state="rrrrysrrrrrrrrysrrrr"/>
    </tlLogic>

    <junction id="A3" type="dead_end" x="1000.00" y="1000.00" incLanes="B3A3_0 B3A3_1 B3A3_2" intLanes="" shape="1000.00,1000.00 1000.00,1009.60 1000.00,1000.00"/>
    <junction id="B2" type="dead_end" x="1200.00" y="800.00" incLanes="B3B2_0 B3B2_1 B3B2_2" intLanes="" shape="1200.00,800.00 1190.40,800.00 1200.00,800.00" fringe="outer"/>
    <junction id="B3" type="traffic_light_right_on_red" x="1200.00" y="1000.00" incLanes="top1B3_0 top1B3_1 top1B3_2 top1B3_3 C3B3_0 C3B3_1 C3B3_2 C3B3_3 C3B3_4 B2B3_0 B2B3_1 B2B3_2 B2B3_3 A3B3_0 A3B3_1 A3B3_2 A3B3_3 A3B3_4" intLanes=":B3_0_0 :B3_1_0 :B3_1_1 :B3_1_2 :B3_20_0 :B3_5_0 :B3_6_0 :B3_6_1 :B3_6_2 :B3_21_0 :B3_10_0 :B3_11_0 :B3_11_1 :B3_11_2 :B3_22_0 :B3_15_0 :B3_16_0 :B3_16_1 :B3_16_2 :B3_23_0" shape="1187.20,1020.00 1209.60,1020.00 1210.40,1017.78 1211.40,1017.00 1212.80,1016.44 1214.60,1016.11 1216.80,1016.00 1216.80,990.40 1214.58,989.24 1213.80,987.80 1213.24,985.78 1212.91,983.18 1212.80,980.00 1190.40,980.00 1189.60,982.22 1188.60,983.00 1187.20,983.56 1185.40,983.89 1183.20,984.00 1183.20,1009.60 1185.42,1010.76 1186.20,1012.20 1186.76,1014.22 1187.09,1016.82">
        <request index="0"  response="00000100000111000000" foes="00000000000111000000" cont="0"/>
        <request index="1"  response="11111000001111000000" foes="11111100001111000000" cont="0"/>
        <request index="2"  response="11111000001111000000" foes="11111100001111000000" cont="0"/>
        <request index="3"  response="11111000001111000000" foes="11111100001111000000" cont="0"/>
        <request index="4"  response="11110011101111000000" foes="11110011101111000000" cont="1"/>
        <request index="5"  response="10000011100000000000" foes="00000011100000000000" cont="0"/>
        <request index="6"  response="00000100000000010000" foes="10000111100000011111" cont="0"/>
        <request index="7"  response="00000100000000010000" foes="10000111100000011111" cont="0"/>
        <request index="8"  response="00000100000000010000" foes="10000111100000011111" cont="0"/>
        <request index="9"  response="01110100000000010000" foes="01110111100000011110" cont="1"/>
        <request index="10" response="01110000000000010000" foes="01110000000000000000" cont="0"/>
        <request index="11" response="11110000001111100000" foes="11110000001111110000" cont="0"/>
        <request index="12" response="11110000001111100000" foes="11110000001111110000" cont="0"/>
        <request index="13" response="11110000001111100000" foes="11110000001111110000" cont="0"/>
        <request index="14" response="11110000001111001110" foes="11110000001111001110" cont="1"/>
        <request index="15" response="00000000001000001110" foes="00000000000000001110" cont="0"/>
        <request index="16" response="00000100000000010000" foes="00000111111000011110" cont="0"/>
        <request index="17" response="00000100000000010000" foes="00000111111000011110" cont="0"/>
        <request index="18" response="00000100000000010000" foes="00000111111000011110" cont="0"/>
        <request index="19" response="00000100000111010000" foes="00000111100111011110" cont="1"/>
    </junction>
    <junction id="C3" type="dead_end" x="1300.00" y="1000.00" incLanes="B3C3_0 B3C3_1 B3C3_2" intLanes="" shape="1300.00,1000.00 1300.00,990.40 1300.00,1000.00" fringe="outer"/>
    <junction id="J0" type="dead_end" x="1201.23" y="999.07" incLanes="" intLanes="" shape="1201.23,999.07 1204.42,998.80"/>
    <junction id="J1" type="dead_end" x="1201.55" y="1002.81" incLanes="E0_0" intLanes="" shape="1204.74,1002.54 1201.55,1002.81"/>
    <junction id="top1" type="dead_end" x="1200.00" y="1100.00" incLanes="B3top1_0 B3top1_1 B3top1_2" intLanes="" shape="1200.00,1100.00 1209.60,1100.00 1200.00,1100.00" fringe="outer"/>

    <junction id=":B3_20_0" type="internal" x="1199.84" y="1009.98" incLanes=":B3_4_0 B2B3_0 B2B3_1 B2B3_2" intLanes=":B3_6_0 :B3_6_1 :B3_6_2 :B3_9_0 :B3_10_0 :B3_11_0 :B3_11_1 :B3_11_2 :B3_16_0 :B3_16_1 :B3_16_2 :B3_19_0"/>
    <junction id=":B3_21_0" type="internal" x="1210.61" y="1000.56" incLanes=":B3_9_0 A3B3_0 A3B3_1 A3B3_2 A3B3_3" intLanes=":B3_1_0 :B3_1_1 :B3_1_2 :B3_4_0 :B3_11_0 :B3_11_1 :B3_11_2 :B3_14_0 :B3_15_0 :B3_16_0 :B3_16_1 :B3_16_2"/>
    <junction id=":B3_22_0" type="internal" x="1200.16" y="990.02" incLanes=":B3_14_0 top1B3_0 top1B3_1 top1B3_2" intLanes=":B3_0_0 :B3_1_0 :B3_1_1 :B3_1_2 :B3_6_0 :B3_6_1 :B3_6_2 :B3_9_0 :B3_16_0 :B3_16_1 :B3_16_2 :B3_19_0"/>
    <junction id=":B3_23_0" type="internal" x="1189.39" y="999.44" incLanes=":B3_19_0 C3B3_0 C3B3_1 C3B3_2 C3B3_3" intLanes=":B3_1_0 :B3_1_1 :B3_1_2 :B3_4_0 :B3_5_0 :B3_6_0 :B3_6_1 :B3_6_2 :B3_11_0 :B3_11_1 :B3_11_2 :B3_14_0"/>

    <connection from="A3B3" to="B3B2" fromLane="0" toLane="0" via=":B3_15_0" tl="B3" linkIndex="15" dir="r" state="O"/>
    <connection from="A3B3" to="B3C3" fromLane="1" toLane="0" via=":B3_16_0" tl="B3" linkIndex="16" dir="s" state="O"/>
    <connection from="A3B3" to="B3C3" fromLane="2" toLane="1" via=":B3_16_1" tl="B3" linkIndex="17" dir="s" state="O"/>
    <connection from="A3B3" to="B3C3" fromLane="3" toLane="2" via=":B3_16_2" tl="B3" linkIndex="18" dir="s" state="O"/>
    <connection from="A3B3" to="B3top1" fromLane="4" toLane="2" via=":B3_19_0" tl="B3" linkIndex="19" dir="l" state="o"/>
    <connection from="B2B3" to="B3C3" fromLane="0" toLane="0" via=":B3_10_0" tl="B3" linkIndex="10" dir="r" state="o"/>
    <connection from="B2B3" to="B3top1" fromLane="0" toLane="0" via=":B3_11_0" tl="B3" linkIndex="11" dir="s" state="o"/>
    <connection from="B2B3" to="B3top1" fromLane="1" toLane="1" via=":B3_11_1" tl="B3" linkIndex="12" dir="s" state="o"/>
    <connection from="B2B3" to="B3top1" fromLane="2" toLane="2" via=":B3_11_2" tl="B3" linkIndex="13" dir="s" state="o"/>
    <connection from="B2B3" to="B3A3" fromLane="3" toLane="2" via=":B3_14_0" tl="B3" linkIndex="14" dir="l" state="o"/>
    <connection from="C3B3" to="B3top1" fromLane="0" toLane="1" via=":B3_5_0" tl="B3" linkIndex="5" dir="r" state="O"/>
    <connection from="C3B3" to="B3A3" fromLane="1" toLane="0" via=":B3_6_0" tl="B3" linkIndex="6" dir="s" state="O"/>
    <connection from="C3B3" to="B3A3" fromLane="2" toLane="1" via=":B3_6_1" tl="B3" linkIndex="7" dir="s" state="O"/>
    <connection from="C3B3" to="B3A3" fromLane="3" toLane="2" via=":B3_6_2" tl="B3" linkIndex="8" dir="s" state="O"/>
    <connection from="C3B3" to="B3B2" fromLane="4" toLane="2" via=":B3_9_0" tl="B3" linkIndex="9" dir="l" state="o"/>
    <connection from="top1B3" to="B3A3" fromLane="0" toLane="0" via=":B3_0_0" tl="B3" linkIndex="0" dir="r" state="o"/>
    <connection from="top1B3" to="B3B2" fromLane="0" toLane="0" via=":B3_1_0" tl="B3" linkIndex="1" dir="s" state="o"/>
    <connection from="top1B3" to="B3B2" fromLane="1" toLane="1" via=":B3_1_1" tl="B3" linkIndex="2" dir="s" state="o"/>
    <connection from="top1B3" to="B3B2" fromLane="2" toLane="2" via=":B3_1_2" tl="B3" linkIndex="3" dir="s" state="o"/>
    <connection from="top1B3" to="B3C3" fromLane="3" toLane="2" via=":B3_4_0" tl="B3" linkIndex="4" dir="l" state="o"/>

    <connection from=":B3_0" to="B3A3" fromLane="0" toLane="0" dir="r" state="M"/>
    <connection from=":B3_1" to="B3B2" fromLane="0" toLane="0" dir="s" state="M"/>
    <connection from=":B3_1" to="B3B2" fromLane="1" toLane="1" dir="s" state="M"/>
    <connection from=":B3_1" to="B3B2" fromLane="2" toLane="2" dir="s" state="M"/>
    <connection from=":B3_4" to="B3C3" fromLane="0" toLane="2" via=":B3_20_0" dir="l" state="m"/>
    <connection from=":B3_20" to="B3C3" fromLane="0" toLane="2" dir="l" state="M"/>
    <connection from=":B3_5" to="B3top1" fromLane="0" toLane="1" dir="r" state="M"/>
    <connection from=":B3_6" to="B3A3" fromLane="0" toLane="0" dir="s" state="M"/>
    <connection from=":B3_6" to="B3A3" fromLane="1" toLane="1" dir="s" state="M"/>
    <connection from=":B3_6" to="B3A3" fromLane="2" toLane="2" dir="s" state="M"/>
    <connection from=":B3_9" to="B3B2" fromLane="0" toLane="2" via=":B3_21_0" dir="l" state="m"/>
    <connection from=":B3_21" to="B3B2" fromLane="0" toLane="2" dir="l" state="M"/>
    <connection from=":B3_10" to="B3C3" fromLane="0" toLane="0" dir="r" state="M"/>
    <connection from=":B3_11" to="B3top1" fromLane="0" toLane="0" dir="s" state="M"/>
    <connection from=":B3_11" to="B3top1" fromLane="1" toLane="1" dir="s" state="M"/>
    <connection from=":B3_11" to="B3top1" fromLane="2" toLane="2" dir="s" state="M"/>
    <connection from=":B3_14" to="B3A3" fromLane="0" toLane="2" via=":B3_22_0" dir="l" state="m"/>
    <connection from=":B3_22" to="B3A3" fromLane="0" toLane="2" dir="l" state="M"/>
    <connection from=":B3_15" to="B3B2" fromLane="0" toLane="0" dir="r" state="M"/>
    <connection from=":B3_16" to="B3C3" fromLane="0" toLane="0" dir="s" state="M"/>
    <connection from=":B3_16" to="B3C3" fromLane="1" toLane="1" dir="s" state="M"/>
    <connection from=":B3_16" to="B3C3" fromLane="2" toLane="2" dir="s" state="M"/>
    <connection from=":B3_19" to="B3top1" fromLane="0" toLane="2" via=":B3_23_0" dir="l" state="m"/>
    <connection from=":B3_23" to="B3top1" fromLane="0" toLane="2" dir="l" state="M"/>

</net>
