<?xml version="1.0" encoding="UTF-8"?>

<!-- generated on 2024-04-11 18:39:04 by Eclipse SUMO netedit Version 1.19.0
<configuration xmlns:xsi="http://www.w3.org/2001/XMLSchema-instance" xsi:noNamespaceSchemaLocation="http://sumo.dlr.de/xsd/neteditConfiguration.xsd">

    <input>
        <sumo-net-file value=".\grid1x1.net.xml"/>
    </input>

    <output>
        <output-file value=".\grid1x1.net.xml"/>
    </output>

    <processing>
        <geometry.min-radius.fix.railways value="false"/>
        <geometry.max-grade.fix value="false"/>
        <offset.disable-normalization value="true"/>
        <lefthand value="0"/>
    </processing>

    <junctions>
        <no-turnarounds value="true"/>
        <junctions.corner-detail value="5"/>
        <junctions.limit-turn-speed value="5.50"/>
        <rectangular-lane-cut value="0"/>
    </junctions>

    <pedestrian>
        <walkingareas value="0"/>
    </pedestrian>

</configuration>
-->

<net version="1.16" junctionCornerDetail="5" limitTurnSpeed="5.50" xmlns:xsi="http://www.w3.org/2001/XMLSchema-instance" xsi:noNamespaceSchemaLocation="http://sumo.dlr.de/xsd/net_file.xsd">

    <location netOffset="0.00,0.00" convBoundary="0.00,0.00,4000.00,4000.00" origBoundary="0.00,0.00,1500.00,1500.00" projParameter="!"/>

    <edge id=":A3_0" function="internal">
        <lane id=":A3_0_0" index="0" speed="6.51" length="9.03" shape="1988.80,2016.80 1988.45,2014.35 1987.40,2012.60 1985.65,2011.55 1983.20,2011.20"/>
    </edge>
    <edge id=":A3_1" function="internal">
        <lane id=":A3_1_0" index="0" speed="13.89" length="33.60" shape="1988.80,2016.80 1988.80,1983.20"/>
        <lane id=":A3_1_1" index="1" speed="13.89" length="33.60" shape="1992.00,2016.80 1992.00,1983.20"/>
        <lane id=":A3_1_2" index="2" speed="13.89" length="33.60" shape="1995.20,2016.80 1995.20,1983.20"/>
    </edge>
    <edge id=":A3_4" function="internal">
        <lane id=":A3_4_0" index="0" speed="11.36" length="13.36" shape="1998.40,2016.80 1999.55,2008.75 2002.24,2004.26"/>
    </edge>
    <edge id=":A3_20" function="internal">
        <lane id=":A3_20_0" index="0" speed="11.36" length="16.31" shape="2002.24,2004.26 2003.00,2003.00 2008.75,1999.55 2016.80,1998.40"/>
    </edge>
    <edge id=":A3_5" function="internal">
        <lane id=":A3_5_0" index="0" speed="6.51" length="9.03" shape="2016.80,2011.20 2014.35,2011.55 2012.60,2012.60 2011.55,2014.35 2011.20,2016.80"/>
    </edge>
    <edge id=":A3_6" function="internal">
        <lane id=":A3_6_0" index="0" speed="13.89" length="33.60" shape="2016.80,2011.20 1983.20,2011.20"/>
        <lane id=":A3_6_1" index="1" speed="13.89" length="33.60" shape="2016.80,2008.00 1983.20,2008.00"/>
        <lane id=":A3_6_2" index="2" speed="13.89" length="33.60" shape="2016.80,2004.80 1983.20,2004.80"/>
    </edge>
    <edge id=":A3_9" function="internal">
        <lane id=":A3_9_0" index="0" speed="11.36" length="13.36" shape="2016.80,2001.60 2008.75,2000.45 2004.26,1997.76"/>
    </edge>
    <edge id=":A3_21" function="internal">
        <lane id=":A3_21_0" index="0" speed="11.36" length="16.31" shape="2004.26,1997.76 2003.00,1997.00 1999.55,1991.25 1998.40,1983.20"/>
    </edge>
    <edge id=":A3_10" function="internal">
        <lane id=":A3_10_0" index="0" speed="6.51" length="9.03" shape="2011.20,1983.20 2011.55,1985.65 2012.60,1987.40 2014.35,1988.45 2016.80,1988.80"/>
    </edge>
    <edge id=":A3_11" function="internal">
        <lane id=":A3_11_0" index="0" speed="13.89" length="33.60" shape="2011.20,1983.20 2011.20,2016.80"/>
        <lane id=":A3_11_1" index="1" speed="13.89" length="33.60" shape="2008.00,1983.20 2008.00,2016.80"/>
        <lane id=":A3_11_2" index="2" speed="13.89" length="33.60" shape="2004.80,1983.20 2004.80,2016.80"/>
    </edge>
    <edge id=":A3_14" function="internal">
        <lane id=":A3_14_0" index="0" speed="11.36" length="13.36" shape="2001.60,1983.20 2000.45,1991.25 1997.76,1995.74"/>
    </edge>
    <edge id=":A3_22" function="internal">
        <lane id=":A3_22_0" index="0" speed="11.36" length="16.31" shape="1997.76,1995.74 1997.00,1997.00 1991.25,2000.45 1983.20,2001.60"/>
    </edge>
    <edge id=":A3_15" function="internal">
        <lane id=":A3_15_0" index="0" speed="6.51" length="9.03" shape="1983.20,1988.80 1985.65,1988.45 1987.40,1987.40 1988.45,1985.65 1988.80,1983.20"/>
    </edge>
    <edge id=":A3_16" function="internal">
        <lane id=":A3_16_0" index="0" speed="13.89" length="33.60" shape="1983.20,1988.80 2016.80,1988.80"/>
        <lane id=":A3_16_1" index="1" speed="13.89" length="33.60" shape="1983.20,1992.00 2016.80,1992.00"/>
        <lane id=":A3_16_2" index="2" speed="13.89" length="33.60" shape="1983.20,1995.20 2016.80,1995.20"/>
    </edge>
    <edge id=":A3_19" function="internal">
        <lane id=":A3_19_0" index="0" speed="11.36" length="13.36" shape="1983.20,1998.40 1991.25,1999.55 1995.74,2002.24"/>
    </edge>
    <edge id=":A3_23" function="internal">
        <lane id=":A3_23_0" index="0" speed="11.36" length="16.31" shape="1995.74,2002.24 1997.00,2003.00 2000.45,2008.75 2001.60,2016.80"/>
    </edge>

    <edge id="A2A3" from="A2" to="A3" priority="-1">
        <lane id="A2A3_0" index="0" speed="13.89" length="1983.20" shape="2011.20,0.00 2011.20,1983.20"/>
        <lane id="A2A3_1" index="1" speed="13.89" length="1983.20" shape="2008.00,0.00 2008.00,1983.20"/>
        <lane id="A2A3_2" index="2" speed="13.89" length="1983.20" shape="2004.80,0.00 2004.80,1983.20"/>
        <lane id="A2A3_3" index="3" speed="13.89" length="1983.20" shape="2001.60,0.00 2001.60,1983.20"/>
    </edge>
    <edge id="A3A2" from="A3" to="A2" priority="-1">
        <lane id="A3A2_0" index="0" speed="13.89" length="1983.20" shape="1988.80,1983.20 1988.80,0.00"/>
        <lane id="A3A2_1" index="1" speed="13.89" length="1983.20" shape="1992.00,1983.20 1992.00,0.00"/>
        <lane id="A3A2_2" index="2" speed="13.89" length="1983.20" shape="1995.20,1983.20 1995.20,0.00"/>
        <lane id="A3A2_3" index="3" speed="13.89" length="1983.20" shape="1998.40,1983.20 1998.40,0.00"/>
    </edge>
    <edge id="A3B3" from="A3" to="B3" priority="-1" length="2000.00">
        <lane id="A3B3_0" index="0" speed="13.89" length="2000.00" shape="2016.80,1988.80 4000.00,1988.80"/>
        <lane id="A3B3_1" index="1" speed="13.89" length="2000.00" shape="2016.80,1992.00 4000.00,1992.00"/>
        <lane id="A3B3_2" index="2" speed="13.89" length="2000.00" shape="2016.80,1995.20 4000.00,1995.20"/>
        <lane id="A3B3_3" index="3" speed="13.89" length="2000.00" shape="2016.80,1998.40 4000.00,1998.40"/>
    </edge>
    <edge id="A3left3" from="A3" to="left3" priority="-1" length="2000.00">
        <lane id="A3left3_0" index="0" speed="13.89" length="2000.00" shape="1983.20,2011.20 0.00,2011.20"/>
        <lane id="A3left3_1" index="1" speed="13.89" length="2000.00" shape="1983.20,2008.00 0.00,2008.00"/>
        <lane id="A3left3_2" index="2" speed="13.89" length="2000.00" shape="1983.20,2004.80 0.00,2004.80"/>
        <lane id="A3left3_3" index="3" speed="13.89" length="2000.00" shape="1983.20,2001.60 0.00,2001.60"/>
    </edge>
    <edge id="A3top0" from="A3" to="top0" priority="-1" length="2000.00">
        <lane id="A3top0_0" index="0" speed="13.89" length="2000.00" shape="2011.20,2016.80 2011.20,4000.00"/>
        <lane id="A3top0_1" index="1" speed="13.89" length="2000.00" shape="2008.00,2016.80 2008.00,4000.00"/>
        <lane id="A3top0_2" index="2" speed="13.89" length="2000.00" shape="2004.80,2016.80 2004.80,4000.00"/>
        <lane id="A3top0_3" index="3" speed="13.89" length="2000.00" shape="2001.60,2016.80 2001.60,4000.00"/>
    </edge>
    <edge id="B3A3" from="B3" to="A3" priority="-1" length="2000.00">
        <lane id="B3A3_0" index="0" speed="13.89" length="2000.00" shape="4000.00,2011.20 2016.80,2011.20"/>
        <lane id="B3A3_1" index="1" speed="13.89" length="2000.00" shape="4000.00,2008.00 2016.80,2008.00"/>
        <lane id="B3A3_2" index="2" speed="13.89" length="2000.00" shape="4000.00,2004.80 2016.80,2004.80"/>
        <lane id="B3A3_3" index="3" speed="13.89" length="2000.00" shape="4000.00,2001.60 2016.80,2001.60"/>
    </edge>
    <edge id="left3A3" from="left3" to="A3" priority="-1" length="2000.00">
        <lane id="left3A3_0" index="0" speed="13.89" length="2000.00" shape="0.00,1988.80 1983.20,1988.80"/>
        <lane id="left3A3_1" index="1" speed="13.89" length="2000.00" shape="0.00,1992.00 1983.20,1992.00"/>
        <lane id="left3A3_2" index="2" speed="13.89" length="2000.00" shape="0.00,1995.20 1983.20,1995.20"/>
        <lane id="left3A3_3" index="3" speed="13.89" length="2000.00" shape="0.00,1998.40 1983.20,1998.40"/>
    </edge>
    <edge id="top0A3" from="top0" to="A3" priority="-1" length="2000.00">
        <lane id="top0A3_0" index="0" speed="13.89" length="2000.00" shape="1988.80,4000.00 1988.80,2016.80"/>
        <lane id="top0A3_1" index="1" speed="13.89" length="2000.00" shape="1992.00,4000.00 1992.00,2016.80"/>
        <lane id="top0A3_2" index="2" speed="13.89" length="2000.00" shape="1995.20,4000.00 1995.20,2016.80"/>
        <lane id="top0A3_3" index="3" speed="13.89" length="2000.00" shape="1998.40,4000.00 1998.40,2016.80"/>
    </edge>

    <tlLogic id="A3" type="static" programID="a" offset="0">
        <phase duration="92" state="GGgsrrGGgsrr"/>
        <phase duration="3"  state="yygsrryygsrr"/>
        <phase duration="12" state="rrGsrrrrGsrr"/>
        <phase duration="3"  state="rrysrrrrysrr"/>
        <phase duration="92" state="srrGGgsrrGGg"/>
        <phase duration="3"  state="srryygsrryyg"/>
        <phase duration="12" state="srrrrGsrrrrG"/>
        <phase duration="3"  state="srrrrysrrrry"/>

        <!-- 0.001 time triggers resco to include as action but is ignored when SUMO is run with step-length 1       -->
        <phase duration="0.001" state="GGGsrrrrrsrr"/>
        <phase duration="0.001" state="rrrsrrGGGsrr"/>
        <phase duration="0.001" state="srrrrrsrrGGG"/>
        <phase duration="0.001" state="srrGGGsrrrrr"/>
    </tlLogic>

    <junction id="A2" type="dead_end" x="2000.00" y="0.00" incLanes="A3A2_0 A3A2_1 A3A2_2 A3A2_3" intLanes="" shape="2000.00,0.00 1987.20,0.00 2000.00,0.00" fringe="outer"/>
    <junction id="A3" type="traffic_light_right_on_red" x="2000.00" y="2000.00" incLanes="top0A3_0 top0A3_1 top0A3_2 top0A3_3 B3A3_0 B3A3_1 B3A3_2 B3A3_3 A2A3_0 A2A3_1 A2A3_2 A2A3_3 left3A3_0 left3A3_1 left3A3_2 left3A3_3" intLanes=":A3_0_0 :A3_1_0 :A3_1_1 :A3_1_2 :A3_20_0 :A3_5_0 :A3_6_0 :A3_6_1 :A3_6_2 :A3_21_0 :A3_10_0 :A3_11_0 :A3_11_1 :A3_11_2 :A3_22_0 :A3_15_0 :A3_16_0 :A3_16_1 :A3_16_2 :A3_23_0" shape="1987.20,2016.80 2012.80,2016.80 2013.24,2014.58 2013.80,2013.80 2014.58,2013.24 2015.58,2012.91 2016.80,2012.80 2016.80,1987.20 2014.58,1986.76 2013.80,1986.20 2013.24,1985.42 2012.91,1984.42 2012.80,1983.20 1987.20,1983.20 1986.76,1985.42 1986.20,1986.20 1985.42,1986.76 1984.42,1987.09 1983.20,1987.20 1983.20,2012.80 1985.42,2013.24 1986.20,2013.80 1986.76,2014.58 1987.09,2015.58">
        <request index="0"  response="00000000000111000000" foes="00000000000111000000" cont="0"/>
        <request index="1"  response="10000000000000000000" foes="11111100000111000000" cont="0"/>
        <request index="2"  response="10000000000000000000" foes="11111100000111000000" cont="0"/>
        <request index="3"  response="10000000000000000000" foes="11111100000111000000" cont="0"/>
        <request index="4"  response="10000011101000000000" foes="10000011101111000000" cont="1"/>
        <request index="5"  response="00000011100000000000" foes="00000011100000000000" cont="0"/>
        <request index="6"  response="00000011100000011111" foes="10000011100000011111" cont="0"/>
        <request index="7"  response="00000011100000011111" foes="10000011100000011111" cont="0"/>
        <request index="8"  response="00000011100000011111" foes="10000011100000011111" cont="0"/>
        <request index="9"  response="01110111100000010000" foes="01110111100000010000" cont="1"/>
        <request index="10" response="01110000000000000000" foes="01110000000000000000" cont="0"/>
        <request index="11" response="00000000001000000000" foes="01110000001111110000" cont="0"/>
        <request index="12" response="00000000001000000000" foes="01110000001111110000" cont="0"/>
        <request index="13" response="00000000001000000000" foes="01110000001111110000" cont="0"/>
        <request index="14" response="10000000001000001110" foes="11110000001000001110" cont="1"/>
        <request index="15" response="00000000000000001110" foes="00000000000000001110" cont="0"/>
        <request index="16" response="00000111110000001110" foes="00000111111000001110" cont="0"/>
        <request index="17" response="00000111110000001110" foes="00000111111000001110" cont="0"/>
        <request index="18" response="00000111110000001110" foes="00000111111000001110" cont="0"/>
        <request index="19" response="00000100000111011110" foes="00000100000111011110" cont="1"/>
    </junction>
    <junction id="B3" type="dead_end" x="4000.00" y="2000.00" incLanes="A3B3_0 A3B3_1 A3B3_2 A3B3_3" intLanes="" shape="4000.00,2000.00 4000.00,1987.20 4000.00,2000.00" fringe="outer"/>
    <junction id="left3" type="dead_end" x="0.00" y="2000.00" incLanes="A3left3_0 A3left3_1 A3left3_2 A3left3_3" intLanes="" shape="0.00,2000.00 0.00,2012.80 0.00,2000.00" fringe="outer"/>
    <junction id="top0" type="dead_end" x="2000.00" y="4000.00" incLanes="A3top0_0 A3top0_1 A3top0_2 A3top0_3" intLanes="" shape="2000.00,4000.00 2012.80,4000.00 2000.00,4000.00" fringe="outer"/>

    <junction id=":A3_20_0" type="internal" x="2002.24" y="2004.26" incLanes=":A3_4_0 A2A3_0 A2A3_1 A2A3_2" intLanes=":A3_6_0 :A3_6_1 :A3_6_2 :A3_9_0 :A3_10_0 :A3_11_0 :A3_11_1 :A3_11_2 :A3_16_0 :A3_16_1 :A3_16_2 :A3_19_0"/>
    <junction id=":A3_21_0" type="internal" x="2004.26" y="1997.76" incLanes=":A3_9_0 left3A3_0 left3A3_1 left3A3_2" intLanes=":A3_1_0 :A3_1_1 :A3_1_2 :A3_4_0 :A3_11_0 :A3_11_1 :A3_11_2 :A3_14_0 :A3_15_0 :A3_16_0 :A3_16_1 :A3_16_2"/>
    <junction id=":A3_22_0" type="internal" x="1997.76" y="1995.74" incLanes=":A3_14_0 top0A3_0 top0A3_1 top0A3_2" intLanes=":A3_0_0 :A3_1_0 :A3_1_1 :A3_1_2 :A3_6_0 :A3_6_1 :A3_6_2 :A3_9_0 :A3_16_0 :A3_16_1 :A3_16_2 :A3_19_0"/>
    <junction id=":A3_23_0" type="internal" x="1995.74" y="2002.24" incLanes=":A3_19_0 B3A3_0 B3A3_1 B3A3_2" intLanes=":A3_1_0 :A3_1_1 :A3_1_2 :A3_4_0 :A3_5_0 :A3_6_0 :A3_6_1 :A3_6_2 :A3_11_0 :A3_11_1 :A3_11_2 :A3_14_0"/>

    <connection from="A2A3" to="A3B3" fromLane="0" toLane="0" via=":A3_10_0" tl="A3" linkIndex="6" dir="r" state="O"/>
    <connection from="A2A3" to="A3top0" fromLane="0" toLane="0" via=":A3_11_0" tl="A3" linkIndex="7" dir="s" state="O"/>
    <connection from="A2A3" to="A3top0" fromLane="1" toLane="1" via=":A3_11_1" tl="A3" linkIndex="7" dir="s" state="O"/>
    <connection from="A2A3" to="A3top0" fromLane="2" toLane="2" via=":A3_11_2" tl="A3" linkIndex="7" dir="s" state="O"/>
    <connection from="A2A3" to="A3left3" fromLane="3" toLane="3" via=":A3_14_0" tl="A3" linkIndex="8" dir="l" state="o"/>
    <connection from="B3A3" to="A3top0" fromLane="0" toLane="0" via=":A3_5_0" tl="A3" linkIndex="3" dir="r" state="o"/>
    <connection from="B3A3" to="A3left3" fromLane="0" toLane="0" via=":A3_6_0" tl="A3" linkIndex="4" dir="s" state="o"/>
    <connection from="B3A3" to="A3left3" fromLane="1" toLane="1" via=":A3_6_1" tl="A3" linkIndex="4" dir="s" state="o"/>
    <connection from="B3A3" to="A3left3" fromLane="2" toLane="2" via=":A3_6_2" tl="A3" linkIndex="4" dir="s" state="o"/>
    <connection from="B3A3" to="A3A2" fromLane="3" toLane="3" via=":A3_9_0" tl="A3" linkIndex="5" dir="l" state="o"/>
    <connection from="left3A3" to="A3A2" fromLane="0" toLane="0" via=":A3_15_0" tl="A3" linkIndex="9" dir="r" state="o"/>
    <connection from="left3A3" to="A3B3" fromLane="0" toLane="0" via=":A3_16_0" tl="A3" linkIndex="10" dir="s" state="o"/>
    <connection from="left3A3" to="A3B3" fromLane="1" toLane="1" via=":A3_16_1" tl="A3" linkIndex="10" dir="s" state="o"/>
    <connection from="left3A3" to="A3B3" fromLane="2" toLane="2" via=":A3_16_2" tl="A3" linkIndex="10" dir="s" state="o"/>
    <connection from="left3A3" to="A3top0" fromLane="3" toLane="3" via=":A3_19_0" tl="A3" linkIndex="11" dir="l" state="o"/>
    <connection from="top0A3" to="A3left3" fromLane="0" toLane="0" via=":A3_0_0" tl="A3" linkIndex="0" dir="r" state="O"/>
    <connection from="top0A3" to="A3A2" fromLane="0" toLane="0" via=":A3_1_0" tl="A3" linkIndex="1" dir="s" state="O"/>
    <connection from="top0A3" to="A3A2" fromLane="1" toLane="1" via=":A3_1_1" tl="A3" linkIndex="1" dir="s" state="O"/>
    <connection from="top0A3" to="A3A2" fromLane="2" toLane="2" via=":A3_1_2" tl="A3" linkIndex="1" dir="s" state="O"/>
    <connection from="top0A3" to="A3B3" fromLane="3" toLane="3" via=":A3_4_0" tl="A3" linkIndex="2" dir="l" state="o"/>

    <connection from=":A3_0" to="A3left3" fromLane="0" toLane="0" dir="r" state="M"/>
    <connection from=":A3_1" to="A3A2" fromLane="0" toLane="0" dir="s" state="M"/>
    <connection from=":A3_1" to="A3A2" fromLane="1" toLane="1" dir="s" state="M"/>
    <connection from=":A3_1" to="A3A2" fromLane="2" toLane="2" dir="s" state="M"/>
    <connection from=":A3_4" to="A3B3" fromLane="0" toLane="3" via=":A3_20_0" dir="l" state="m"/>
    <connection from=":A3_20" to="A3B3" fromLane="0" toLane="3" dir="l" state="M"/>
    <connection from=":A3_5" to="A3top0" fromLane="0" toLane="0" dir="r" state="M"/>
    <connection from=":A3_6" to="A3left3" fromLane="0" toLane="0" dir="s" state="M"/>
    <connection from=":A3_6" to="A3left3" fromLane="1" toLane="1" dir="s" state="M"/>
    <connection from=":A3_6" to="A3left3" fromLane="2" toLane="2" dir="s" state="M"/>
    <connection from=":A3_9" to="A3A2" fromLane="0" toLane="3" via=":A3_21_0" dir="l" state="m"/>
    <connection from=":A3_21" to="A3A2" fromLane="0" toLane="3" dir="l" state="M"/>
    <connection from=":A3_10" to="A3B3" fromLane="0" toLane="0" dir="r" state="M"/>
    <connection from=":A3_11" to="A3top0" fromLane="0" toLane="0" dir="s" state="M"/>
    <connection from=":A3_11" to="A3top0" fromLane="1" toLane="1" dir="s" state="M"/>
    <connection from=":A3_11" to="A3top0" fromLane="2" toLane="2" dir="s" state="M"/>
    <connection from=":A3_14" to="A3left3" fromLane="0" toLane="3" via=":A3_22_0" dir="l" state="m"/>
    <connection from=":A3_22" to="A3left3" fromLane="0" toLane="3" dir="l" state="M"/>
    <connection from=":A3_15" to="A3A2" fromLane="0" toLane="0" dir="r" state="M"/>
    <connection from=":A3_16" to="A3B3" fromLane="0" toLane="0" dir="s" state="M"/>
    <connection from=":A3_16" to="A3B3" fromLane="1" toLane="1" dir="s" state="M"/>
    <connection from=":A3_16" to="A3B3" fromLane="2" toLane="2" dir="s" state="M"/>
    <connection from=":A3_19" to="A3top0" fromLane="0" toLane="3" via=":A3_23_0" dir="l" state="m"/>
    <connection from=":A3_23" to="A3top0" fromLane="0" toLane="3" dir="l" state="M"/>

</net>
