<configuration>
  <input>
    <net-file value="grid1x1.net.xml" />
    <route-files value="grid1x1.flo.xml" />
  </input>
  <time>
    <begin value="0" />
    <end value="3600" />
  </time>
</configuration>