<?xml version="1.0" encoding="UTF-8"?>

<!-- generated on 2024-11-18 13:10:14 by Eclipse SUMO netedit Version 1.20.0
<configuration xmlns:xsi="http://www.w3.org/2001/XMLSchema-instance" xsi:noNamespaceSchemaLocation="http://sumo.dlr.de/xsd/neteditConfiguration.xsd">

    <input>
        <route-files value="C:\Users\jault\PycharmProjects\RESCO\resco_benchmark\environments\saltlake1A_400sX200w\saltlake1A_400sX200w.flo.xml"/>
        <sumo-net-file value="C:\Users\jault\PycharmProjects\RESCO\resco_benchmark\environments\saltlake1A_400sX200w\saltlake1A_400sX200w.net.xml"/>
    </input>

    <output>
        <output-file value="C:\Users\jault\PycharmProjects\RESCO\resco_benchmark\environments\saltlake1A_400sX200w\saltlake1A_400sX200w.net.xml"/>
    </output>

    <processing>
        <geometry.min-radius.fix.railways value="false"/>
        <geometry.max-grade.fix value="false"/>
        <offset.disable-normalization value="true"/>
        <lefthand value="0"/>
    </processing>

    <junctions>
        <no-turnarounds value="true"/>
        <junctions.corner-detail value="5"/>
        <junctions.limit-turn-speed value="5.50"/>
        <rectangular-lane-cut value="0"/>
    </junctions>

    <pedestrian>
        <walkingareas value="0"/>
    </pedestrian>

</configuration>
-->

<net version="1.20" junctionCornerDetail="5" limitTurnSpeed="5.50" xmlns:xsi="http://www.w3.org/2001/XMLSchema-instance" xsi:noNamespaceSchemaLocation="http://sumo.dlr.de/xsd/net_file.xsd">

    <location netOffset="0.00,0.00" convBoundary="780.00,783.20,1230.40,1216.80" origBoundary="0.00,0.00,1500.00,1500.00" projParameter="!"/>

    <edge id=":A3_0" function="internal">
        <lane id=":A3_0_0" index="0" speed="7.33" length="11.73" shape="985.60,1016.80 985.25,1012.95 984.20,1010.20 982.45,1008.55 980.00,1008.00"/>
    </edge>
    <edge id=":A3_1" function="internal">
        <lane id=":A3_1_0" index="0" speed="13.89" length="33.80" shape="988.80,1016.80 989.30,1006.54 990.40,999.30 991.50,992.40 992.00,983.20"/>
        <lane id=":A3_1_1" index="1" speed="13.89" length="33.80" shape="992.00,1016.80 992.50,1006.54 993.60,999.30 994.70,992.40 995.20,983.20"/>
        <lane id=":A3_1_2" index="2" speed="13.89" length="33.80" shape="995.20,1016.80 995.70,1006.54 996.80,999.30 997.90,992.40 998.40,983.20"/>
    </edge>
    <edge id=":A3_4" function="internal">
        <lane id=":A3_4_0" index="0" speed="11.84" length="9.52" shape="998.40,1016.80 999.55,1007.35"/>
    </edge>
    <edge id=":A3_21" function="internal">
        <lane id=":A3_21_0" index="0" speed="11.84" length="22.78" shape="999.55,1007.35 1003.00,1000.60 1008.75,996.55 1016.80,995.20"/>
    </edge>
    <edge id=":A3_5" function="internal">
        <lane id=":A3_5_0" index="0" speed="7.33" length="11.73" shape="1016.80,1011.20 1012.95,1011.55 1010.20,1012.60 1008.55,1014.35 1008.00,1016.80"/>
    </edge>
    <edge id=":A3_6" function="internal">
        <lane id=":A3_6_0" index="0" speed="13.89" length="36.94" shape="1016.80,1011.20 980.00,1008.00"/>
        <lane id=":A3_6_1" index="1" speed="13.89" length="36.94" shape="1016.80,1008.00 980.00,1004.80"/>
        <lane id=":A3_6_2" index="2" speed="13.89" length="36.94" shape="1016.80,1004.80 980.00,1001.60"/>
    </edge>
    <edge id=":A3_9" function="internal">
        <lane id=":A3_9_0" index="0" speed="11.36" length="13.36" shape="1016.80,1001.60 1008.75,1000.45 1004.26,997.76"/>
    </edge>
    <edge id=":A3_22" function="internal">
        <lane id=":A3_22_0" index="0" speed="11.36" length="16.31" shape="1004.26,997.76 1003.00,997.00 999.55,991.25 998.40,983.20"/>
    </edge>
    <edge id=":A3_10" function="internal">
        <lane id=":A3_10_0" index="0" speed="6.51" length="9.03" shape="1011.20,983.20 1011.55,985.65 1012.60,987.40 1014.35,988.45 1016.80,988.80"/>
    </edge>
    <edge id=":A3_11" function="internal">
        <lane id=":A3_11_0" index="0" speed="13.89" length="33.80" shape="1011.20,983.20 1010.70,993.46 1009.60,1000.70 1008.50,1007.60 1008.00,1016.80"/>
        <lane id=":A3_11_1" index="1" speed="13.89" length="33.80" shape="1008.00,983.20 1007.50,993.46 1006.40,1000.70 1005.30,1007.60 1004.80,1016.80"/>
        <lane id=":A3_11_2" index="2" speed="13.89" length="33.80" shape="1004.80,983.20 1004.30,993.46 1003.20,1000.70 1002.10,1007.60 1001.60,1016.80"/>
    </edge>
    <edge id=":A3_14" function="internal">
        <lane id=":A3_14_0" index="0" speed="11.84" length="6.28" shape="1001.60,983.20 1000.56,989.39"/>
    </edge>
    <edge id=":A3_23" function="internal">
        <lane id=":A3_23_0" index="0" speed="11.84" length="26.02" shape="1000.56,989.39 1000.25,991.25 996.20,997.00 989.45,1000.45 980.00,1001.60"/>
    </edge>
    <edge id=":A3_15" function="internal">
        <lane id=":A3_15_0" index="0" speed="8.10" length="14.57" shape="980.00,988.80 985.25,988.45 989.00,987.40 991.25,985.65 992.00,983.20"/>
    </edge>
    <edge id=":A3_16" function="internal">
        <lane id=":A3_16_0" index="0" speed="13.89" length="36.80" shape="980.00,988.80 1016.80,988.80"/>
        <lane id=":A3_16_1" index="1" speed="13.89" length="36.80" shape="980.00,992.00 1016.80,992.00"/>
        <lane id=":A3_16_2" index="2" speed="13.89" length="36.80" shape="980.00,995.20 1016.80,995.20"/>
    </edge>
    <edge id=":A3_19" function="internal">
        <lane id=":A3_19_0" index="0" speed="12.30" length="12.26" shape="980.00,998.40 990.85,999.55 992.08,1000.10"/>
        <lane id=":A3_19_1" index="1" speed="11.84" length="10.34" shape="980.00,998.40 989.45,999.55 990.18,999.92"/>
    </edge>
    <edge id=":A3_24" function="internal">
        <lane id=":A3_24_0" index="0" speed="12.30" length="22.73" shape="992.08,1000.10 998.60,1003.00 1003.25,1008.75 1004.80,1016.80"/>
    </edge>
    <edge id=":A3_25" function="internal">
        <lane id=":A3_25_0" index="0" speed="11.84" length="21.96" shape="990.18,999.92 996.20,1003.00 1000.25,1008.75 1001.60,1016.80"/>
    </edge>

    <edge id="A2A3" from="A2" to="A3" priority="-1">
        <lane id="A2A3_0" index="0" speed="13.89" length="200.00" shape="1011.20,783.20 1011.20,983.20"/>
        <lane id="A2A3_1" index="1" speed="13.89" length="200.00" shape="1008.00,783.20 1008.00,983.20"/>
        <lane id="A2A3_2" index="2" speed="13.89" length="200.00" shape="1004.80,783.20 1004.80,983.20"/>
        <lane id="A2A3_3" index="3" speed="13.89" length="200.00" shape="1001.60,783.20 1001.60,983.20"/>
    </edge>
    <edge id="A3A2" from="A3" to="A2" priority="-1">
        <lane id="A3A2_0" index="0" speed="13.89" length="200.00" shape="992.00,983.20 992.00,783.20"/>
        <lane id="A3A2_1" index="1" speed="13.89" length="200.00" shape="995.20,983.20 995.20,783.20"/>
        <lane id="A3A2_2" index="2" speed="13.89" length="200.00" shape="998.40,983.20 998.40,783.20"/>
    </edge>
    <edge id="A3B3" from="A3" to="B3" priority="-1">
        <lane id="A3B3_0" index="0" speed="13.89" length="213.60" shape="1016.80,988.80 1230.40,988.80"/>
        <lane id="A3B3_1" index="1" speed="13.89" length="213.60" shape="1016.80,992.00 1230.40,992.00"/>
        <lane id="A3B3_2" index="2" speed="13.89" length="213.60" shape="1016.80,995.20 1230.40,995.20"/>
        <lane id="A3B3_3" index="3" speed="13.89" length="213.60" shape="1016.80,998.40 1230.40,998.40"/>
    </edge>
    <edge id="A3left3" from="A3" to="left3" priority="-1">
        <lane id="A3left3_0" index="0" speed="13.89" length="200.00" shape="980.00,1008.00 780.00,1008.00"/>
        <lane id="A3left3_1" index="1" speed="13.89" length="200.00" shape="980.00,1004.80 780.00,1004.80"/>
        <lane id="A3left3_2" index="2" speed="13.89" length="200.00" shape="980.00,1001.60 780.00,1001.60"/>
    </edge>
    <edge id="A3top0" from="A3" to="top0" priority="-1">
        <lane id="A3top0_0" index="0" speed="13.89" length="200.00" shape="1008.00,1016.80 1008.00,1216.80"/>
        <lane id="A3top0_1" index="1" speed="13.89" length="200.00" shape="1004.80,1016.80 1004.80,1216.80"/>
        <lane id="A3top0_2" index="2" speed="13.89" length="200.00" shape="1001.60,1016.80 1001.60,1216.80"/>
    </edge>
    <edge id="B3A3" from="B3" to="A3" priority="-1">
        <lane id="B3A3_0" index="0" speed="13.89" length="213.60" shape="1230.40,1011.20 1016.80,1011.20"/>
        <lane id="B3A3_1" index="1" speed="13.89" length="213.60" shape="1230.40,1008.00 1016.80,1008.00"/>
        <lane id="B3A3_2" index="2" speed="13.89" length="213.60" shape="1230.40,1004.80 1016.80,1004.80"/>
        <lane id="B3A3_3" index="3" speed="13.89" length="213.60" shape="1230.40,1001.60 1016.80,1001.60"/>
    </edge>
    <edge id="left3A3" from="left3" to="A3" priority="-1">
        <lane id="left3A3_0" index="0" speed="13.89" length="200.00" shape="780.00,988.80 980.00,988.80"/>
        <lane id="left3A3_1" index="1" speed="13.89" length="200.00" shape="780.00,992.00 980.00,992.00"/>
        <lane id="left3A3_2" index="2" speed="13.89" length="200.00" shape="780.00,995.20 980.00,995.20"/>
        <lane id="left3A3_3" index="3" speed="13.89" length="200.00" shape="780.00,998.40 980.00,998.40"/>
    </edge>
    <edge id="top0A3" from="top0" to="A3" priority="-1">
        <lane id="top0A3_0" index="0" speed="13.89" length="200.00" shape="985.60,1216.80 985.60,1016.80"/>
        <lane id="top0A3_1" index="1" speed="13.89" length="200.00" shape="988.80,1216.80 988.80,1016.80"/>
        <lane id="top0A3_2" index="2" speed="13.89" length="200.00" shape="992.00,1216.80 992.00,1016.80"/>
        <lane id="top0A3_3" index="3" speed="13.89" length="200.00" shape="995.20,1216.80 995.20,1016.80"/>
        <lane id="top0A3_4" index="4" speed="13.89" length="200.00" shape="998.40,1216.80 998.40,1016.80"/>
    </edge>

    <tlLogic id="A3" type="static" programID="0" offset="0">
        <phase duration="5"  state="srrGGgsrrsrr"/>
        <phase duration="5"  state="srrsrrsrrGGg"/>
        <phase duration="5"  state="srrGGgsrrGGg"/>
        <phase duration="5"  state="srrrrGsrrrrG"/>
        <phase duration="5"  state="srrsrrGGgsrr"/>
        <phase duration="5"  state="GGgsrrsrrsrr"/>
        <phase duration="5"  state="GGgsrrGGgsrr"/>
        <phase duration="5"  state="rrGsrrrrGsrr"/>
    </tlLogic>

    <junction id="A2" type="dead_end" x="1000.00" y="783.20" incLanes="A3A2_0 A3A2_1 A3A2_2" intLanes="" shape="1000.00,783.20 990.40,783.20 1000.00,783.20" fringe="outer"/>
    <junction id="A3" type="traffic_light_right_on_red" x="1000.00" y="1000.00" incLanes="top0A3_0 top0A3_1 top0A3_2 top0A3_3 top0A3_4 B3A3_0 B3A3_1 B3A3_2 B3A3_3 A2A3_0 A2A3_1 A2A3_2 A2A3_3 left3A3_0 left3A3_1 left3A3_2 left3A3_3" intLanes=":A3_0_0 :A3_1_0 :A3_1_1 :A3_1_2 :A3_21_0 :A3_5_0 :A3_6_0 :A3_6_1 :A3_6_2 :A3_22_0 :A3_10_0 :A3_11_0 :A3_11_1 :A3_11_2 :A3_23_0 :A3_15_0 :A3_16_0 :A3_16_1 :A3_16_2 :A3_24_0 :A3_25_0" shape="984.00,1016.80 1009.60,1016.80 1010.40,1014.58 1011.40,1013.80 1012.80,1013.24 1014.60,1012.91 1016.80,1012.80 1016.80,987.20 1014.58,986.76 1013.80,986.20 1013.24,985.42 1012.91,984.42 1012.80,983.20 990.40,983.20 989.24,985.42 987.80,986.20 985.78,986.76 983.18,987.09 980.00,987.20 980.00,1009.60 982.22,1010.40 983.00,1011.40 983.56,1012.80 983.89,1014.60">
        <request index="0"  response="000000100000111000000" foes="000000000000111000000" cont="0"/>
        <request index="1"  response="110000000001000000000" foes="111111100001111000000" cont="0"/>
        <request index="2"  response="110000000001000000000" foes="111111100001111000000" cont="0"/>
        <request index="3"  response="110000000001000000000" foes="111111100001111000000" cont="0"/>
        <request index="4"  response="110000011101000000000" foes="111110011101111000000" cont="1"/>
        <request index="5"  response="110000011100000000000" foes="000000011100000000000" cont="0"/>
        <request index="6"  response="000000111100000011111" foes="110000111100000011111" cont="0"/>
        <request index="7"  response="000000111100000011111" foes="110000111100000011111" cont="0"/>
        <request index="8"  response="000000111100000011111" foes="110000111100000011111" cont="0"/>
        <request index="9"  response="001110111100000011110" foes="001110111100000011110" cont="1"/>
        <request index="10" response="001110000000000010000" foes="001110000000000000000" cont="0"/>
        <request index="11" response="110000000001000000000" foes="111110000001111110000" cont="0"/>
        <request index="12" response="110000000001000000000" foes="111110000001111110000" cont="0"/>
        <request index="13" response="110000000001000000000" foes="111110000001111110000" cont="0"/>
        <request index="14" response="110000000001000001110" foes="111110000001111001110" cont="1"/>
        <request index="15" response="000000000001000001110" foes="000000000000000001110" cont="0"/>
        <request index="16" response="000000111110000011110" foes="000000111111000011110" cont="0"/>
        <request index="17" response="000000111110000011110" foes="000000111111000011110" cont="0"/>
        <request index="18" response="000000111110000011110" foes="000000111111000011110" cont="0"/>
        <request index="19" response="000000111100111011110" foes="000000111100111011110" cont="1"/>
        <request index="20" response="000000111100111011110" foes="000000111100111011110" cont="1"/>
    </junction>
    <junction id="B3" type="dead_end" x="1230.40" y="1000.00" incLanes="A3B3_0 A3B3_1 A3B3_2 A3B3_3" intLanes="" shape="1230.40,1000.00 1230.40,987.20 1230.40,1000.00"/>
    <junction id="left3" type="dead_end" x="780.00" y="1000.00" incLanes="A3left3_0 A3left3_1 A3left3_2" intLanes="" shape="780.00,1000.00 780.00,1009.60 780.00,1000.00" fringe="outer"/>
    <junction id="top0" type="dead_end" x="1000.00" y="1216.80" incLanes="A3top0_0 A3top0_1 A3top0_2" intLanes="" shape="1000.00,1216.80 1009.60,1216.80 1000.00,1216.80" fringe="outer"/>

    <junction id=":A3_21_0" type="internal" x="999.55" y="1007.35" incLanes=":A3_4_0 A2A3_0 A2A3_1 A2A3_2" intLanes=":A3_6_0 :A3_6_1 :A3_6_2 :A3_9_0 :A3_10_0 :A3_11_0 :A3_11_1 :A3_11_2 :A3_16_0 :A3_16_1 :A3_16_2 :A3_19_0 :A3_19_1"/>
    <junction id=":A3_22_0" type="internal" x="1004.26" y="997.76" incLanes=":A3_9_0 left3A3_0 left3A3_1 left3A3_2" intLanes=":A3_1_0 :A3_1_1 :A3_1_2 :A3_4_0 :A3_11_0 :A3_11_1 :A3_11_2 :A3_14_0 :A3_15_0 :A3_16_0 :A3_16_1 :A3_16_2"/>
    <junction id=":A3_23_0" type="internal" x="1000.56" y="989.39" incLanes=":A3_14_0 top0A3_0 top0A3_1 top0A3_2 top0A3_3" intLanes=":A3_0_0 :A3_1_0 :A3_1_1 :A3_1_2 :A3_6_0 :A3_6_1 :A3_6_2 :A3_9_0 :A3_16_0 :A3_16_1 :A3_16_2 :A3_19_0 :A3_19_1"/>
    <junction id=":A3_24_0" type="internal" x="992.08" y="1000.10" incLanes=":A3_19_0 B3A3_0 B3A3_1 B3A3_2" intLanes=":A3_1_0 :A3_1_1 :A3_1_2 :A3_4_0 :A3_5_0 :A3_6_0 :A3_6_1 :A3_6_2 :A3_11_0 :A3_11_1 :A3_11_2 :A3_14_0"/>
    <junction id=":A3_25_0" type="internal" x="990.18" y="999.92" incLanes=":A3_19_1 B3A3_0 B3A3_1 B3A3_2" intLanes=":A3_1_0 :A3_1_1 :A3_1_2 :A3_4_0 :A3_5_0 :A3_6_0 :A3_6_1 :A3_6_2 :A3_11_0 :A3_11_1 :A3_11_2 :A3_14_0"/>

    <connection from="A2A3" to="A3B3" fromLane="0" toLane="0" via=":A3_10_0" tl="A3" linkIndex="6" dir="r" state="O"/>
    <connection from="A2A3" to="A3top0" fromLane="0" toLane="0" via=":A3_11_0" tl="A3" linkIndex="7" dir="s" state="O"/>
    <connection from="A2A3" to="A3top0" fromLane="1" toLane="1" via=":A3_11_1" tl="A3" linkIndex="7" dir="s" state="O"/>
    <connection from="A2A3" to="A3top0" fromLane="2" toLane="2" via=":A3_11_2" tl="A3" linkIndex="7" dir="s" state="O"/>
    <connection from="A2A3" to="A3left3" fromLane="3" toLane="2" via=":A3_14_0" tl="A3" linkIndex="8" dir="l" state="o"/>
    <connection from="B3A3" to="A3top0" fromLane="0" toLane="0" via=":A3_5_0" tl="A3" linkIndex="3" dir="r" state="o"/>
    <connection from="B3A3" to="A3left3" fromLane="0" toLane="0" via=":A3_6_0" tl="A3" linkIndex="4" dir="s" state="o"/>
    <connection from="B3A3" to="A3left3" fromLane="1" toLane="1" via=":A3_6_1" tl="A3" linkIndex="4" dir="s" state="o"/>
    <connection from="B3A3" to="A3left3" fromLane="2" toLane="2" via=":A3_6_2" tl="A3" linkIndex="4" dir="s" state="o"/>
    <connection from="B3A3" to="A3A2" fromLane="3" toLane="2" via=":A3_9_0" tl="A3" linkIndex="5" dir="l" state="o"/>
    <connection from="left3A3" to="A3A2" fromLane="0" toLane="0" via=":A3_15_0" tl="A3" linkIndex="9" dir="r" state="o"/>
    <connection from="left3A3" to="A3B3" fromLane="0" toLane="0" via=":A3_16_0" tl="A3" linkIndex="10" dir="s" state="o"/>
    <connection from="left3A3" to="A3B3" fromLane="1" toLane="1" via=":A3_16_1" tl="A3" linkIndex="10" dir="s" state="o"/>
    <connection from="left3A3" to="A3B3" fromLane="2" toLane="2" via=":A3_16_2" tl="A3" linkIndex="10" dir="s" state="o"/>
    <connection from="left3A3" to="A3top0" fromLane="3" toLane="1" via=":A3_19_0" tl="A3" linkIndex="11" dir="l" state="o"/>
    <connection from="left3A3" to="A3top0" fromLane="3" toLane="2" via=":A3_19_1" tl="A3" linkIndex="11" dir="l" state="o"/>
    <connection from="top0A3" to="A3left3" fromLane="0" toLane="0" via=":A3_0_0" tl="A3" linkIndex="0" dir="r" state="O"/>
    <connection from="top0A3" to="A3A2" fromLane="1" toLane="0" via=":A3_1_0" tl="A3" linkIndex="1" dir="s" state="O"/>
    <connection from="top0A3" to="A3A2" fromLane="2" toLane="1" via=":A3_1_1" tl="A3" linkIndex="1" dir="s" state="O"/>
    <connection from="top0A3" to="A3A2" fromLane="3" toLane="2" via=":A3_1_2" tl="A3" linkIndex="1" dir="s" state="O"/>
    <connection from="top0A3" to="A3B3" fromLane="4" toLane="2" via=":A3_4_0" tl="A3" linkIndex="2" dir="l" state="o"/>

    <connection from=":A3_0" to="A3left3" fromLane="0" toLane="0" dir="r" state="M"/>
    <connection from=":A3_1" to="A3A2" fromLane="0" toLane="0" dir="s" state="M"/>
    <connection from=":A3_1" to="A3A2" fromLane="1" toLane="1" dir="s" state="M"/>
    <connection from=":A3_1" to="A3A2" fromLane="2" toLane="2" dir="s" state="M"/>
    <connection from=":A3_4" to="A3B3" fromLane="0" toLane="2" via=":A3_21_0" dir="l" state="m"/>
    <connection from=":A3_21" to="A3B3" fromLane="0" toLane="2" dir="l" state="M"/>
    <connection from=":A3_5" to="A3top0" fromLane="0" toLane="0" dir="r" state="M"/>
    <connection from=":A3_6" to="A3left3" fromLane="0" toLane="0" dir="s" state="M"/>
    <connection from=":A3_6" to="A3left3" fromLane="1" toLane="1" dir="s" state="M"/>
    <connection from=":A3_6" to="A3left3" fromLane="2" toLane="2" dir="s" state="M"/>
    <connection from=":A3_9" to="A3A2" fromLane="0" toLane="2" via=":A3_22_0" dir="l" state="m"/>
    <connection from=":A3_22" to="A3A2" fromLane="0" toLane="2" dir="l" state="M"/>
    <connection from=":A3_10" to="A3B3" fromLane="0" toLane="0" dir="r" state="M"/>
    <connection from=":A3_11" to="A3top0" fromLane="0" toLane="0" dir="s" state="M"/>
    <connection from=":A3_11" to="A3top0" fromLane="1" toLane="1" dir="s" state="M"/>
    <connection from=":A3_11" to="A3top0" fromLane="2" toLane="2" dir="s" state="M"/>
    <connection from=":A3_14" to="A3left3" fromLane="0" toLane="2" via=":A3_23_0" dir="l" state="m"/>
    <connection from=":A3_23" to="A3left3" fromLane="0" toLane="2" dir="l" state="M"/>
    <connection from=":A3_15" to="A3A2" fromLane="0" toLane="0" dir="r" state="M"/>
    <connection from=":A3_16" to="A3B3" fromLane="0" toLane="0" dir="s" state="M"/>
    <connection from=":A3_16" to="A3B3" fromLane="1" toLane="1" dir="s" state="M"/>
    <connection from=":A3_16" to="A3B3" fromLane="2" toLane="2" dir="s" state="M"/>
    <connection from=":A3_19" to="A3top0" fromLane="0" toLane="1" via=":A3_24_0" dir="l" state="m"/>
    <connection from=":A3_24" to="A3top0" fromLane="0" toLane="1" dir="l" state="M"/>
    <connection from=":A3_19" to="A3top0" fromLane="1" toLane="2" via=":A3_25_0" dir="l" state="m"/>
    <connection from=":A3_25" to="A3top0" fromLane="0" toLane="2" dir="l" state="M"/>

</net>
