<?xml version="1.0" encoding="UTF-8"?>

<!-- generated on 2024-08-26 11:54:39 by Eclipse SUMO netedit Version 1.20.0
<configuration xmlns:xsi="http://www.w3.org/2001/XMLSchema-instance" xsi:noNamespaceSchemaLocation="http://sumo.dlr.de/xsd/neteditConfiguration.xsd">

    <input>
        <sumocfg-file value=".\.\saltlake2_stateXuniversity.sumocfg"/>
        <additional-files value=""/>
        <route-files value=".\.\saltlake2_stateXuniversity.flo.xml"/>
        <sumo-net-file value=".\.\saltlake2_stateXuniversity.net.xml"/>
    </input>

    <output>
        <output-file value=".\.\saltlake2_stateXuniversity.net.xml"/>
    </output>

    <processing>
        <geometry.min-radius.fix.railways value="false"/>
        <geometry.max-grade.fix value="false"/>
        <offset.disable-normalization value="true"/>
        <lefthand value="0"/>
    </processing>

    <junctions>
        <no-turnarounds value="true"/>
        <junctions.corner-detail value="5"/>
        <junctions.limit-turn-speed value="5.50"/>
        <rectangular-lane-cut value="0"/>
    </junctions>

    <pedestrian>
        <walkingareas value="0"/>
    </pedestrian>

    <netedit>
        <ignore.routeelements value="false"/>
    </netedit>

</configuration>
-->

<net version="1.20" junctionCornerDetail="5" limitTurnSpeed="5.50" xmlns:xsi="http://www.w3.org/2001/XMLSchema-instance" xsi:noNamespaceSchemaLocation="http://sumo.dlr.de/xsd/net_file.xsd">

    <location netOffset="0.00,0.00" convBoundary="900.00,800.00,1201.55,1100.00" origBoundary="0.00,0.00,1500.00,1500.00" projParameter="!"/>

    <edge id=":A3_0" function="internal">
        <lane id=":A3_0_0" index="0" speed="6.51" length="9.03" shape="995.20,1013.60 994.85,1011.15 993.80,1009.40 992.05,1008.35 989.60,1008.00"/>
    </edge>
    <edge id=":A3_1" function="internal">
        <lane id=":A3_1_0" index="0" speed="13.89" length="33.76" shape="995.20,1013.60 995.70,1004.83 996.80,994.92 997.90,985.95 998.40,980.00"/>
    </edge>
    <edge id=":A3_2" function="internal">
        <lane id=":A3_2_0" index="0" speed="10.41" length="10.70" shape="998.40,1013.60 999.15,1005.55 1000.10,1003.12"/>
    </edge>
    <edge id=":A3_15" function="internal">
        <lane id=":A3_15_0" index="0" speed="10.41" length="14.03" shape="1000.10,1003.12 1001.40,999.80 1005.15,996.35 1010.40,995.20"/>
    </edge>
    <edge id=":A3_3" function="internal">
        <lane id=":A3_3_0" index="0" speed="7.33" length="11.73" shape="1010.40,1008.00 1006.55,1008.35 1003.80,1009.40 1002.15,1011.15 1001.60,1013.60"/>
    </edge>
    <edge id=":A3_4" function="internal">
        <lane id=":A3_4_0" index="0" speed="13.89" length="20.80" shape="1010.40,1008.00 989.60,1008.00"/>
        <lane id=":A3_4_1" index="1" speed="13.89" length="20.80" shape="1010.40,1004.80 989.60,1004.80"/>
        <lane id=":A3_4_2" index="2" speed="13.89" length="20.80" shape="1010.40,1001.60 989.60,1001.60"/>
    </edge>
    <edge id=":A3_7" function="internal">
        <lane id=":A3_7_0" index="0" speed="6.51" length="9.03" shape="1004.80,980.00 1005.15,982.45 1006.20,984.20 1007.95,985.25 1010.40,985.60"/>
    </edge>
    <edge id=":A3_8" function="internal">
        <lane id=":A3_8_0" index="0" speed="13.89" length="33.76" shape="1004.80,980.00 1004.30,988.77 1003.20,998.68 1002.10,1007.65 1001.60,1013.60"/>
    </edge>
    <edge id=":A3_9" function="internal">
        <lane id=":A3_9_0" index="0" speed="10.96" length="13.65" shape="1001.60,980.00 1000.85,989.45 999.53,993.41"/>
    </edge>
    <edge id=":A3_16" function="internal">
        <lane id=":A3_16_0" index="0" speed="10.96" length="13.88" shape="999.53,993.41 998.60,996.20 994.85,1000.25 989.60,1001.60"/>
    </edge>
    <edge id=":A3_10" function="internal">
        <lane id=":A3_10_0" index="0" speed="8.00" length="14.19" shape="989.60,988.80 993.45,988.25 996.20,986.60 997.85,983.85 998.40,980.00"/>
    </edge>
    <edge id=":A3_11" function="internal">
        <lane id=":A3_11_0" index="0" speed="13.89" length="20.80" shape="989.60,988.80 1010.40,988.80"/>
        <lane id=":A3_11_1" index="1" speed="13.89" length="20.80" shape="989.60,992.00 1010.40,992.00"/>
        <lane id=":A3_11_2" index="2" speed="13.89" length="20.80" shape="989.60,995.20 1010.40,995.20"/>
    </edge>
    <edge id=":A3_14" function="internal">
        <lane id=":A3_14_0" index="0" speed="9.84" length="4.01" shape="989.60,998.40 993.55,999.11"/>
    </edge>
    <edge id=":A3_17" function="internal">
        <lane id=":A3_17_0" index="0" speed="9.84" length="17.98" shape="993.55,999.11 994.85,999.35 998.60,1002.20 1000.85,1006.95 1001.60,1013.60"/>
    </edge>

    <edge id="A2A3" from="A2" to="A3" priority="-1">
        <lane id="A2A3_0" index="0" speed="13.89" length="180.00" shape="1004.80,800.00 1004.80,980.00"/>
        <lane id="A2A3_1" index="1" speed="13.89" length="180.00" shape="1001.60,800.00 1001.60,980.00"/>
    </edge>
    <edge id="A3A2" from="A3" to="A2" priority="-1">
        <lane id="A3A2_0" index="0" speed="13.89" length="180.00" shape="998.40,980.00 998.40,800.00"/>
    </edge>
    <edge id="A3B3" from="A3" to="B3" priority="-1">
        <lane id="A3B3_0" index="0" speed="13.89" length="189.60" shape="1010.40,985.60 1200.00,985.60"/>
        <lane id="A3B3_1" index="1" speed="13.89" length="189.60" shape="1010.40,988.80 1200.00,988.80"/>
        <lane id="A3B3_2" index="2" speed="13.89" length="189.60" shape="1010.40,992.00 1200.00,992.00"/>
        <lane id="A3B3_3" index="3" speed="13.89" length="189.60" shape="1010.40,995.20 1200.00,995.20"/>
        <lane id="A3B3_4" index="4" speed="13.89" length="189.60" shape="1010.40,998.40 1200.00,998.40"/>
    </edge>
    <edge id="A3left3" from="A3" to="left3" priority="-1" length="100.00">
        <lane id="A3left3_0" index="0" speed="13.89" length="100.00" shape="989.60,1008.00 900.00,1008.00"/>
        <lane id="A3left3_1" index="1" speed="13.89" length="100.00" shape="989.60,1004.80 900.00,1004.80"/>
        <lane id="A3left3_2" index="2" speed="13.89" length="100.00" shape="989.60,1001.60 900.00,1001.60"/>
    </edge>
    <edge id="A3top0" from="A3" to="top0" priority="-1">
        <lane id="A3top0_0" index="0" speed="13.89" length="86.40" shape="1001.60,1013.60 1001.60,1100.00"/>
    </edge>
    <edge id="B3A3" from="B3" to="A3" priority="-1">
        <lane id="B3A3_0" index="0" speed="13.89" length="189.60" shape="1200.00,1008.00 1010.40,1008.00"/>
        <lane id="B3A3_1" index="1" speed="13.89" length="189.60" shape="1200.00,1004.80 1010.40,1004.80"/>
        <lane id="B3A3_2" index="2" speed="13.89" length="189.60" shape="1200.00,1001.60 1010.40,1001.60"/>
    </edge>
    <edge id="E0" from="J0" to="J1" priority="-1">
        <lane id="E0_0" index="0" speed="13.89" length="3.75" shape="1202.82,998.93 1203.14,1002.67"/>
    </edge>
    <edge id="left3A3" from="left3" to="A3" priority="-1" length="100.00">
        <lane id="left3A3_0" index="0" speed="13.89" length="100.00" shape="900.00,988.80 989.60,988.80"/>
        <lane id="left3A3_1" index="1" speed="13.89" length="100.00" shape="900.00,992.00 989.60,992.00"/>
        <lane id="left3A3_2" index="2" speed="13.89" length="100.00" shape="900.00,995.20 989.60,995.20"/>
        <lane id="left3A3_3" index="3" speed="13.89" length="100.00" shape="900.00,998.40 989.60,998.40"/>
    </edge>
    <edge id="top0A3" from="top0" to="A3" priority="-1">
        <lane id="top0A3_0" index="0" speed="13.89" length="86.40" shape="995.20,1100.00 995.20,1013.60"/>
        <lane id="top0A3_1" index="1" speed="13.89" length="86.40" shape="998.40,1100.00 998.40,1013.60"/>
    </edge>

    <tlLogic id="A3" type="static" programID="0" offset="0">
        <phase duration="0.01"  state="srrGGGGsrrsrrrr"/>
        <phase duration="0.01"  state="srrsrrrsrrGGGGG"/>
        <phase duration="77" state="srrGGGgsrrGGGGg"/>
        <phase duration="3"  state="srryyygsrryyyyg"/>
        <phase duration="7"  state="srrrrrGsrrrrrrG"/>
        <phase duration="3"  state="srrrrrysrrrrrry"/>
        <phase duration="0.10"  state="GGGsrrrsrrsrrrr"/>
        <phase duration="0.10"  state="srrsrrrGGGsrrrr"/>
        <phase duration="37" state="GGgsrrrGGgsrrrr"/>
        <phase duration="3"  state="yygsrrryygsrrrr"/>
        <phase duration="12" state="rrGsrrrrrGsrrrr"/>
        <phase duration="3"  state="rrysrrrrrysrrrr"/>
    </tlLogic>

    <junction id="A2" type="dead_end" x="1000.00" y="800.00" incLanes="A3A2_0" intLanes="" shape="1000.00,800.00 996.80,800.00 1000.00,800.00" fringe="outer"/>
    <junction id="A3" type="traffic_light_right_on_red" x="1000.00" y="1000.00" incLanes="top0A3_0 top0A3_1 B3A3_0 B3A3_1 B3A3_2 A2A3_0 A2A3_1 left3A3_0 left3A3_1 left3A3_2 left3A3_3" intLanes=":A3_0_0 :A3_1_0 :A3_15_0 :A3_3_0 :A3_4_0 :A3_4_1 :A3_4_2 :A3_7_0 :A3_8_0 :A3_16_0 :A3_10_0 :A3_11_0 :A3_11_1 :A3_11_2 :A3_17_0" shape="993.60,1013.60 1003.20,1013.60 1004.00,1011.38 1005.00,1010.60 1006.40,1010.04 1008.20,1009.71 1010.40,1009.60 1010.40,984.00 1008.18,983.56 1007.40,983.00 1006.84,982.22 1006.51,981.22 1006.40,980.00 996.80,980.00 996.60,982.20 996.00,984.00 995.00,985.40 993.60,986.40 991.80,987.00 989.60,987.20 989.60,1009.60 991.82,1010.04 992.60,1010.60 993.16,1011.38 993.49,1012.38">
        <request index="0"  response="000001001110000" foes="000000001110000" cont="0"/>
        <request index="1"  response="111110001110000" foes="111111001110000" cont="0"/>
        <request index="2"  response="111100101110000" foes="111100101110000" cont="1"/>
        <request index="3"  response="100000100000000" foes="100000100000000" cont="0"/>
        <request index="4"  response="000001000000100" foes="100001100000111" cont="0"/>
        <request index="5"  response="000001000000100" foes="100001100000111" cont="0"/>
        <request index="6"  response="000001000000100" foes="100001100000111" cont="0"/>
        <request index="7"  response="011100000000100" foes="000000000000000" cont="0"/>
        <request index="8"  response="111100001111000" foes="111100001111100" cont="0"/>
        <request index="9"  response="111100001110010" foes="111100001110010" cont="1"/>
        <request index="10" response="000000000000010" foes="000000000000010" cont="0"/>
        <request index="11" response="000001000000100" foes="000001100000110" cont="0"/>
        <request index="12" response="000001000000100" foes="000001100000110" cont="0"/>
        <request index="13" response="000001000000100" foes="000001100000110" cont="0"/>
        <request index="14" response="000001001111100" foes="000001101111110" cont="1"/>
    </junction>
    <junction id="B3" type="dead_end" x="1200.00" y="1000.00" incLanes="A3B3_0 A3B3_1 A3B3_2 A3B3_3 A3B3_4" intLanes="" shape="1200.00,1000.00 1200.00,984.00 1200.00,1000.00"/>
    <junction id="J0" type="dead_end" x="1201.23" y="999.07" incLanes="" intLanes="" shape="1201.23,999.07 1204.42,998.80"/>
    <junction id="J1" type="dead_end" x="1201.55" y="1002.81" incLanes="E0_0" intLanes="" shape="1204.74,1002.54 1201.55,1002.81"/>
    <junction id="left3" type="dead_end" x="900.00" y="1000.00" incLanes="A3left3_0 A3left3_1 A3left3_2" intLanes="" shape="900.00,1000.00 900.00,1009.60 900.00,1000.00" fringe="outer"/>
    <junction id="top0" type="dead_end" x="1000.00" y="1100.00" incLanes="A3top0_0" intLanes="" shape="1000.00,1100.00 1003.20,1100.00 1000.00,1100.00" fringe="outer"/>

    <junction id=":A3_15_0" type="internal" x="1000.10" y="1003.12" incLanes=":A3_2_0 A2A3_0" intLanes=":A3_4_0 :A3_4_1 :A3_4_2 :A3_7_0 :A3_8_0 :A3_11_0 :A3_11_1 :A3_11_2 :A3_14_0"/>
    <junction id=":A3_16_0" type="internal" x="999.53" y="993.41" incLanes=":A3_9_0 top0A3_0" intLanes=":A3_0_0 :A3_1_0 :A3_4_0 :A3_4_1 :A3_4_2 :A3_11_0 :A3_11_1 :A3_11_2 :A3_14_0"/>
    <junction id=":A3_17_0" type="internal" x="993.55" y="999.11" incLanes=":A3_14_0 B3A3_0 B3A3_1 B3A3_2" intLanes=":A3_1_0 :A3_2_0 :A3_3_0 :A3_4_0 :A3_4_1 :A3_4_2 :A3_8_0 :A3_9_0"/>

    <connection from="A2A3" to="A3B3" fromLane="0" toLane="0" via=":A3_7_0" tl="A3" linkIndex="7" dir="r" state="o"/>
    <connection from="A2A3" to="A3top0" fromLane="0" toLane="0" via=":A3_8_0" tl="A3" linkIndex="8" dir="s" state="o"/>
    <connection from="A2A3" to="A3left3" fromLane="1" toLane="2" via=":A3_9_0" tl="A3" linkIndex="9" dir="l" state="o"/>
    <connection from="B3A3" to="A3top0" fromLane="0" toLane="0" via=":A3_3_0" tl="A3" linkIndex="3" dir="r" state="O"/>
    <connection from="B3A3" to="A3left3" fromLane="0" toLane="0" via=":A3_4_0" tl="A3" linkIndex="4" dir="s" state="O"/>
    <connection from="B3A3" to="A3left3" fromLane="1" toLane="1" via=":A3_4_1" tl="A3" linkIndex="5" dir="s" state="O"/>
    <connection from="B3A3" to="A3left3" fromLane="2" toLane="2" via=":A3_4_2" tl="A3" linkIndex="6" dir="s" state="O"/>
    <connection from="left3A3" to="A3A2" fromLane="0" toLane="0" via=":A3_10_0" tl="A3" linkIndex="10" dir="r" state="O"/>
    <connection from="left3A3" to="A3B3" fromLane="0" toLane="1" via=":A3_11_0" tl="A3" linkIndex="11" dir="s" state="O"/>
    <connection from="left3A3" to="A3B3" fromLane="1" toLane="2" via=":A3_11_1" tl="A3" linkIndex="12" dir="s" state="O"/>
    <connection from="left3A3" to="A3B3" fromLane="2" toLane="3" via=":A3_11_2" tl="A3" linkIndex="13" dir="s" state="O"/>
    <connection from="left3A3" to="A3top0" fromLane="3" toLane="0" via=":A3_14_0" tl="A3" linkIndex="14" dir="l" state="o"/>
    <connection from="top0A3" to="A3left3" fromLane="0" toLane="0" via=":A3_0_0" tl="A3" linkIndex="0" dir="r" state="o"/>
    <connection from="top0A3" to="A3A2" fromLane="0" toLane="0" via=":A3_1_0" tl="A3" linkIndex="1" dir="s" state="o"/>
    <connection from="top0A3" to="A3B3" fromLane="1" toLane="3" via=":A3_2_0" tl="A3" linkIndex="2" dir="l" state="o"/>

    <connection from=":A3_0" to="A3left3" fromLane="0" toLane="0" dir="r" state="M"/>
    <connection from=":A3_1" to="A3A2" fromLane="0" toLane="0" dir="s" state="M"/>
    <connection from=":A3_2" to="A3B3" fromLane="0" toLane="3" via=":A3_15_0" dir="l" state="m"/>
    <connection from=":A3_15" to="A3B3" fromLane="0" toLane="3" dir="l" state="M"/>
    <connection from=":A3_3" to="A3top0" fromLane="0" toLane="0" dir="r" state="M"/>
    <connection from=":A3_4" to="A3left3" fromLane="0" toLane="0" dir="s" state="M"/>
    <connection from=":A3_4" to="A3left3" fromLane="1" toLane="1" dir="s" state="M"/>
    <connection from=":A3_4" to="A3left3" fromLane="2" toLane="2" dir="s" state="M"/>
    <connection from=":A3_7" to="A3B3" fromLane="0" toLane="0" dir="r" state="M"/>
    <connection from=":A3_8" to="A3top0" fromLane="0" toLane="0" dir="s" state="M"/>
    <connection from=":A3_9" to="A3left3" fromLane="0" toLane="2" via=":A3_16_0" dir="l" state="m"/>
    <connection from=":A3_16" to="A3left3" fromLane="0" toLane="2" dir="l" state="M"/>
    <connection from=":A3_10" to="A3A2" fromLane="0" toLane="0" dir="r" state="M"/>
    <connection from=":A3_11" to="A3B3" fromLane="0" toLane="1" dir="s" state="M"/>
    <connection from=":A3_11" to="A3B3" fromLane="1" toLane="2" dir="s" state="M"/>
    <connection from=":A3_11" to="A3B3" fromLane="2" toLane="3" dir="s" state="M"/>
    <connection from=":A3_14" to="A3top0" fromLane="0" toLane="0" via=":A3_17_0" dir="l" state="m"/>
    <connection from=":A3_17" to="A3top0" fromLane="0" toLane="0" dir="l" state="M"/>

</net>
